Input Parameters:
   integrator                     = md-vv
   tinit                          = 0
   dt                             = 0.002
   nsteps                         = 5000000
   init-step                      = 875000000
   simulation-part                = 1
   comm-mode                      = Linear
   nstcomm                        = 1
   bd-fric                        = 0
   ld-seed                        = 157339145
   emtol                          = 10
   emstep                         = 0.01
   niter                          = 20
   fcstep                         = 0
   nstcgsteep                     = 1000
   nbfgscorr                      = 10
   rtpi                           = 0.05
   nstxout                        = 500000
   nstvout                        = 500000
   nstfout                        = 0
   nstlog                         = 5000
   nstcalcenergy                  = 1
   nstenergy                      = 50000
   nstxout-compressed             = 50000
   compressed-x-precision         = 1000
   cutoff-scheme                  = Verlet
   nstlist                        = 10
   pbc                            = xyz
   periodic-molecules             = false
   verlet-buffer-tolerance        = 0.005
   rlist                          = 0.9
   coulombtype                    = PME
   coulomb-modifier               = Potential-shift
   rcoulomb-switch                = 0
   rcoulomb                       = 0.9
   epsilon-r                      = 1
   epsilon-rf                     = inf
   vdw-type                       = Cut-off
   vdw-modifier                   = Potential-shift
   rvdw-switch                    = 0
   rvdw                           = 0.9
   DispCorr                       = EnerPres
   table-extension                = 1
   fourierspacing                 = 0.1
   fourier-nx                     = 64
   fourier-ny                     = 64
   fourier-nz                     = 64
   pme-order                      = 4
   ewald-rtol                     = 1e-06
   ewald-rtol-lj                  = 0.001
   lj-pme-comb-rule               = Geometric
   ewald-geometry                 = 0
   epsilon-surface                = 0
   tcoupl                         = V-rescale
   nsttcouple                     = 1
   nh-chain-length                = 0
   print-nose-hoover-chain-variables = false
   pcoupl                         = No
   pcoupltype                     = Isotropic
   nstpcouple                     = -1
   tau-p                          = 1
   compressibility (3x3):
      compressibility[    0]={ 0.00000e+00,  0.00000e+00,  0.00000e+00}
      compressibility[    1]={ 0.00000e+00,  0.00000e+00,  0.00000e+00}
      compressibility[    2]={ 0.00000e+00,  0.00000e+00,  0.00000e+00}
   ref-p (3x3):
      ref-p[    0]={ 0.00000e+00,  0.00000e+00,  0.00000e+00}
      ref-p[    1]={ 0.00000e+00,  0.00000e+00,  0.00000e+00}
      ref-p[    2]={ 0.00000e+00,  0.00000e+00,  0.00000e+00}
   refcoord-scaling               = No
   posres-com (3):
      posres-com[0]= 0.00000e+00
      posres-com[1]= 0.00000e+00
      posres-com[2]= 0.00000e+00
   posres-comB (3):
      posres-comB[0]= 0.00000e+00
      posres-comB[1]= 0.00000e+00
      posres-comB[2]= 0.00000e+00
   QMMM                           = false
   QMconstraints                  = 0
   QMMMscheme                     = 0
   MMChargeScaleFactor            = 1
qm-opts:
   ngQM                           = 0
   constraint-algorithm           = Lincs
   continuation                   = true
   Shake-SOR                      = false
   shake-tol                      = 0.0001
   lincs-order                    = 12
   lincs-iter                     = 2
   lincs-warnangle                = 30
   nwall                          = 0
   wall-type                      = 9-3
   wall-r-linpot                  = -1
   wall-atomtype[0]               = -1
   wall-atomtype[1]               = -1
   wall-density[0]                = 0
   wall-density[1]                = 0
   wall-ewald-zfac                = 3
   pull                           = false
   awh                            = false
   rotation                       = false
   interactiveMD                  = false
   disre                          = No
   disre-weighting                = Conservative
   disre-mixed                    = false
   dr-fc                          = 1000
   dr-tau                         = 0
   nstdisreout                    = 100
   orire-fc                       = 0
   orire-tau                      = 0
   nstorireout                    = 100
   free-energy                    = expanded
   init-lambda                    = -1
   init-lambda-state              = 45
   delta-lambda                   = 0
   nstdhdl                        = 500
   n-lambdas                      = 109
   separate-dvdl:
       fep-lambdas =   TRUE
      mass-lambdas =   FALSE
      coul-lambdas =   FALSE
       vdw-lambdas =   FALSE
    bonded-lambdas =   FALSE
 restraint-lambdas =   FALSE
temperature-lambdas =   FALSE
all-lambdas:
       fep-lambdas =            0       0.002       0.004       0.006       0.008        0.01        0.02        0.03        0.04        0.05        0.06        0.07        0.08        0.09         0.1        0.11        0.12        0.13        0.14        0.15        0.16        0.17        0.18        0.19         0.2        0.21        0.22        0.23        0.24        0.25        0.26        0.27        0.28        0.29         0.3        0.31        0.32        0.33        0.34        0.35        0.36        0.37        0.38        0.39         0.4        0.41        0.42        0.43        0.44        0.45        0.46        0.47        0.48        0.49         0.5        0.51        0.52        0.53        0.54        0.55        0.56        0.57        0.58        0.59         0.6        0.61        0.62        0.63        0.64        0.65        0.66        0.67        0.68        0.69         0.7        0.71        0.72        0.73        0.74        0.75        0.76        0.77        0.78        0.79         0.8        0.81        0.82        0.83        0.84        0.85        0.86        0.87        0.88        0.89         0.9        0.91        0.92        0.93        0.94        0.95        0.96        0.97        0.98        0.99       0.992       0.994       0.996       0.998           1
      mass-lambdas =            0       0.002       0.004       0.006       0.008        0.01        0.02        0.03        0.04        0.05        0.06        0.07        0.08        0.09         0.1        0.11        0.12        0.13        0.14        0.15        0.16        0.17        0.18        0.19         0.2        0.21        0.22        0.23        0.24        0.25        0.26        0.27        0.28        0.29         0.3        0.31        0.32        0.33        0.34        0.35        0.36        0.37        0.38        0.39         0.4        0.41        0.42        0.43        0.44        0.45        0.46        0.47        0.48        0.49         0.5        0.51        0.52        0.53        0.54        0.55        0.56        0.57        0.58        0.59         0.6        0.61        0.62        0.63        0.64        0.65        0.66        0.67        0.68        0.69         0.7        0.71        0.72        0.73        0.74        0.75        0.76        0.77        0.78        0.79         0.8        0.81        0.82        0.83        0.84        0.85        0.86        0.87        0.88        0.89         0.9        0.91        0.92        0.93        0.94        0.95        0.96        0.97        0.98        0.99       0.992       0.994       0.996       0.998           1
      coul-lambdas =            0       0.002       0.004       0.006       0.008        0.01        0.02        0.03        0.04        0.05        0.06        0.07        0.08        0.09         0.1        0.11        0.12        0.13        0.14        0.15        0.16        0.17        0.18        0.19         0.2        0.21        0.22        0.23        0.24        0.25        0.26        0.27        0.28        0.29         0.3        0.31        0.32        0.33        0.34        0.35        0.36        0.37        0.38        0.39         0.4        0.41        0.42        0.43        0.44        0.45        0.46        0.47        0.48        0.49         0.5        0.51        0.52        0.53        0.54        0.55        0.56        0.57        0.58        0.59         0.6        0.61        0.62        0.63        0.64        0.65        0.66        0.67        0.68        0.69         0.7        0.71        0.72        0.73        0.74        0.75        0.76        0.77        0.78        0.79         0.8        0.81        0.82        0.83        0.84        0.85        0.86        0.87        0.88        0.89         0.9        0.91        0.92        0.93        0.94        0.95        0.96        0.97        0.98        0.99       0.992       0.994       0.996       0.998           1
       vdw-lambdas =            0       0.002       0.004       0.006       0.008        0.01        0.02        0.03        0.04        0.05        0.06        0.07        0.08        0.09         0.1        0.11        0.12        0.13        0.14        0.15        0.16        0.17        0.18        0.19         0.2        0.21        0.22        0.23        0.24        0.25        0.26        0.27        0.28        0.29         0.3        0.31        0.32        0.33        0.34        0.35        0.36        0.37        0.38        0.39         0.4        0.41        0.42        0.43        0.44        0.45        0.46        0.47        0.48        0.49         0.5        0.51        0.52        0.53        0.54        0.55        0.56        0.57        0.58        0.59         0.6        0.61        0.62        0.63        0.64        0.65        0.66        0.67        0.68        0.69         0.7        0.71        0.72        0.73        0.74        0.75        0.76        0.77        0.78        0.79         0.8        0.81        0.82        0.83        0.84        0.85        0.86        0.87        0.88        0.89         0.9        0.91        0.92        0.93        0.94        0.95        0.96        0.97        0.98        0.99       0.992       0.994       0.996       0.998           1
    bonded-lambdas =            0       0.002       0.004       0.006       0.008        0.01        0.02        0.03        0.04        0.05        0.06        0.07        0.08        0.09         0.1        0.11        0.12        0.13        0.14        0.15        0.16        0.17        0.18        0.19         0.2        0.21        0.22        0.23        0.24        0.25        0.26        0.27        0.28        0.29         0.3        0.31        0.32        0.33        0.34        0.35        0.36        0.37        0.38        0.39         0.4        0.41        0.42        0.43        0.44        0.45        0.46        0.47        0.48        0.49         0.5        0.51        0.52        0.53        0.54        0.55        0.56        0.57        0.58        0.59         0.6        0.61        0.62        0.63        0.64        0.65        0.66        0.67        0.68        0.69         0.7        0.71        0.72        0.73        0.74        0.75        0.76        0.77        0.78        0.79         0.8        0.81        0.82        0.83        0.84        0.85        0.86        0.87        0.88        0.89         0.9        0.91        0.92        0.93        0.94        0.95        0.96        0.97        0.98        0.99       0.992       0.994       0.996       0.998           1
 restraint-lambdas =            0       0.002       0.004       0.006       0.008        0.01        0.02        0.03        0.04        0.05        0.06        0.07        0.08        0.09         0.1        0.11        0.12        0.13        0.14        0.15        0.16        0.17        0.18        0.19         0.2        0.21        0.22        0.23        0.24        0.25        0.26        0.27        0.28        0.29         0.3        0.31        0.32        0.33        0.34        0.35        0.36        0.37        0.38        0.39         0.4        0.41        0.42        0.43        0.44        0.45        0.46        0.47        0.48        0.49         0.5        0.51        0.52        0.53        0.54        0.55        0.56        0.57        0.58        0.59         0.6        0.61        0.62        0.63        0.64        0.65        0.66        0.67        0.68        0.69         0.7        0.71        0.72        0.73        0.74        0.75        0.76        0.77        0.78        0.79         0.8        0.81        0.82        0.83        0.84        0.85        0.86        0.87        0.88        0.89         0.9        0.91        0.92        0.93        0.94        0.95        0.96        0.97        0.98        0.99       0.992       0.994       0.996       0.998           1
temperature-lambdas =            0       0.002       0.004       0.006       0.008        0.01        0.02        0.03        0.04        0.05        0.06        0.07        0.08        0.09         0.1        0.11        0.12        0.13        0.14        0.15        0.16        0.17        0.18        0.19         0.2        0.21        0.22        0.23        0.24        0.25        0.26        0.27        0.28        0.29         0.3        0.31        0.32        0.33        0.34        0.35        0.36        0.37        0.38        0.39         0.4        0.41        0.42        0.43        0.44        0.45        0.46        0.47        0.48        0.49         0.5        0.51        0.52        0.53        0.54        0.55        0.56        0.57        0.58        0.59         0.6        0.61        0.62        0.63        0.64        0.65        0.66        0.67        0.68        0.69         0.7        0.71        0.72        0.73        0.74        0.75        0.76        0.77        0.78        0.79         0.8        0.81        0.82        0.83        0.84        0.85        0.86        0.87        0.88        0.89         0.9        0.91        0.92        0.93        0.94        0.95        0.96        0.97        0.98        0.99       0.992       0.994       0.996       0.998           1
   calc-lambda-neighbors          = -1
   dhdl-print-energy              = total
   sc-alpha                       = 0.5
   sc-power                       = 1
   sc-r-power                     = 6
   sc-sigma                       = 0.3
   sc-sigma-min                   = 0.3
   sc-coul                        = true
   dh-hist-size                   = 0
   dh-hist-spacing                = 0.1
   separate-dhdl-file             = yes
   dhdl-derivatives               = yes
   nstexpanded                    = 500
   lmc-stats                      = wang-landau
   lmc-move                       = metropolized-gibbs
   lmc-weights-equil              = wl-delta
   weight-equil-wl-delta          = 1e-05
   lmc-seed                       = -1593583541
   mc-temperature                 = 323.15
   lmc-repeats                    = 1
   lmc-gibbsdelta                 = -1
   lmc-forced-nstart              = 0
   symmetrized-transition-matrix  = true
   nst-transition-matrix          = 500000
   mininum-var-min                = 100
   weight-c-range                 = 0
   wl-scale                       = 0.5
   wl-ratio                       = 0.7
   init-wl-delta                  = 0.019531
   wl-oneovert                    = false
      init-lambda-weights (109):
      init-lambda-weights[0]= 0.00000e+00
      init-lambda-weights[1]= 6.70000e+00
      init-lambda-weights[2]= 1.13830e+01
      init-lambda-weights[3]= 1.52350e+01
      init-lambda-weights[4]= 1.86280e+01
      init-lambda-weights[5]= 2.12520e+01
      init-lambda-weights[6]= 3.30290e+01
      init-lambda-weights[7]= 4.29730e+01
      init-lambda-weights[8]= 5.15420e+01
      init-lambda-weights[9]= 5.94980e+01
      init-lambda-weights[10]= 6.67170e+01
      init-lambda-weights[11]= 7.35570e+01
      init-lambda-weights[12]= 7.98600e+01
      init-lambda-weights[13]= 8.59770e+01
      init-lambda-weights[14]= 9.12890e+01
      init-lambda-weights[15]= 9.65430e+01
      init-lambda-weights[16]= 1.01025e+02
      init-lambda-weights[17]= 1.05545e+02
      init-lambda-weights[18]= 1.09414e+02
      init-lambda-weights[19]= 1.13167e+02
      init-lambda-weights[20]= 1.16642e+02
      init-lambda-weights[21]= 1.19751e+02
      init-lambda-weights[22]= 1.22576e+02
      init-lambda-weights[23]= 1.24917e+02
      init-lambda-weights[24]= 1.27155e+02
      init-lambda-weights[25]= 1.28863e+02
      init-lambda-weights[26]= 1.30022e+02
      init-lambda-weights[27]= 1.30954e+02
      init-lambda-weights[28]= 1.31257e+02
      init-lambda-weights[29]= 1.31481e+02
      init-lambda-weights[30]= 1.31135e+02
      init-lambda-weights[31]= 1.30466e+02
      init-lambda-weights[32]= 1.29606e+02
      init-lambda-weights[33]= 1.28456e+02
      init-lambda-weights[34]= 1.27302e+02
      init-lambda-weights[35]= 1.25975e+02
      init-lambda-weights[36]= 1.24768e+02
      init-lambda-weights[37]= 1.23204e+02
      init-lambda-weights[38]= 1.21721e+02
      init-lambda-weights[39]= 1.20408e+02
      init-lambda-weights[40]= 1.19199e+02
      init-lambda-weights[41]= 1.18043e+02
      init-lambda-weights[42]= 1.17073e+02
      init-lambda-weights[43]= 1.15987e+02
      init-lambda-weights[44]= 1.15202e+02
      init-lambda-weights[45]= 1.14223e+02
      init-lambda-weights[46]= 1.13806e+02
      init-lambda-weights[47]= 1.13101e+02
      init-lambda-weights[48]= 1.12282e+02
      init-lambda-weights[49]= 1.12130e+02
      init-lambda-weights[50]= 1.11873e+02
      init-lambda-weights[51]= 1.11586e+02
      init-lambda-weights[52]= 1.11562e+02
      init-lambda-weights[53]= 1.11685e+02
      init-lambda-weights[54]= 1.11657e+02
      init-lambda-weights[55]= 1.12028e+02
      init-lambda-weights[56]= 1.12187e+02
      init-lambda-weights[57]= 1.12853e+02
      init-lambda-weights[58]= 1.13459e+02
      init-lambda-weights[59]= 1.14039e+02
      init-lambda-weights[60]= 1.14904e+02
      init-lambda-weights[61]= 1.15662e+02
      init-lambda-weights[62]= 1.16774e+02
      init-lambda-weights[63]= 1.17699e+02
      init-lambda-weights[64]= 1.19033e+02
      init-lambda-weights[65]= 1.20236e+02
      init-lambda-weights[66]= 1.21819e+02
      init-lambda-weights[67]= 1.23136e+02
      init-lambda-weights[68]= 1.24566e+02
      init-lambda-weights[69]= 1.26306e+02
      init-lambda-weights[70]= 1.27971e+02
      init-lambda-weights[71]= 1.29472e+02
      init-lambda-weights[72]= 1.31106e+02
      init-lambda-weights[73]= 1.32824e+02
      init-lambda-weights[74]= 1.34122e+02
      init-lambda-weights[75]= 1.35839e+02
      init-lambda-weights[76]= 1.37337e+02
      init-lambda-weights[77]= 1.38539e+02
      init-lambda-weights[78]= 1.39604e+02
      init-lambda-weights[79]= 1.40508e+02
      init-lambda-weights[80]= 1.40894e+02
      init-lambda-weights[81]= 1.41010e+02
      init-lambda-weights[82]= 1.40817e+02
      init-lambda-weights[83]= 1.40142e+02
      init-lambda-weights[84]= 1.39215e+02
      init-lambda-weights[85]= 1.37592e+02
      init-lambda-weights[86]= 1.35465e+02
      init-lambda-weights[87]= 1.33159e+02
      init-lambda-weights[88]= 1.30452e+02
      init-lambda-weights[89]= 1.27225e+02
      init-lambda-weights[90]= 1.23976e+02
      init-lambda-weights[91]= 1.20139e+02
      init-lambda-weights[92]= 1.16039e+02
      init-lambda-weights[93]= 1.11334e+02
      init-lambda-weights[94]= 1.06547e+02
      init-lambda-weights[95]= 1.01058e+02
      init-lambda-weights[96]= 9.53130e+01
      init-lambda-weights[97]= 8.92350e+01
      init-lambda-weights[98]= 8.26130e+01
      init-lambda-weights[99]= 7.52200e+01
      init-lambda-weights[100]= 6.72870e+01
      init-lambda-weights[101]= 5.88290e+01
      init-lambda-weights[102]= 4.90240e+01
      init-lambda-weights[103]= 3.81280e+01
      init-lambda-weights[104]= 3.55630e+01
      init-lambda-weights[105]= 3.29850e+01
      init-lambda-weights[106]= 3.00550e+01
      init-lambda-weights[107]= 2.65880e+01
      init-lambda-weights[108]= 2.20320e+01
   init-weights                   = false
   cos-acceleration               = 0
   deform (3x3):
      deform[    0]={ 0.00000e+00,  0.00000e+00,  0.00000e+00}
      deform[    1]={ 0.00000e+00,  0.00000e+00,  0.00000e+00}
      deform[    2]={ 0.00000e+00,  0.00000e+00,  0.00000e+00}
   simulated-tempering            = false
   swapcoords                     = no
   userint1                       = 0
   userint2                       = 0
   userint3                       = 0
   userint4                       = 0
   userreal1                      = 0
   userreal2                      = 0
   userreal3                      = 0
   userreal4                      = 0
   applied-forces:
     electric-field:
       x:
         E0                       = 0
         omega                    = 0
         t0                       = 0
         sigma                    = 0
       y:
         E0                       = 0
         omega                    = 0
         t0                       = 0
         sigma                    = 0
       z:
         E0                       = 0
         omega                    = 0
         t0                       = 0
         sigma                    = 0
     density-guided-simulation:
       active                     = false
       group                      = protein
       similarity-measure         = inner-product
       atom-spreading-weight      = unity
       force-constant             = 1e+09
       gaussian-transform-spreading-width = 0.2
       gaussian-transform-spreading-range-in-multiples-of-width = 4
       reference-density-filename = reference.mrc
       nst                        = 1
       normalize-densities        = true
       adaptive-force-scaling     = false
       adaptive-force-scaling-time-constant = 4
grpopts:
   nrdf:       47091
   ref-t:      323.15
   tau-t:         0.5
annealing:          No
annealing-npoints:           0
   acc:	           0           0           0
   nfreeze:           N           N           N
   energygrp-flags[  0]: 0

Changing nstlist from 10 to 100, rlist from 0.9 to 0.95

Update task on the GPU was required, by the GMX_FORCE_UPDATE_DEFAULT_GPU environment variable, but the following condition(s) were not satisfied:

Either PME or short-ranged non-bonded interaction tasks must run on the GPU.
Compatible GPUs must have been found.
Only a CUDA build is supported.
Only the md integrator is supported.
Free energy perturbations are not supported.
The number of coupled constraints is higher than supported in the CUDA LINCS code.

Will use CPU version of update.

Using 1 MPI thread
Using 9 OpenMP threads

Non-default thread affinity set probably by the OpenMP library,
disabling internal thread affinity
System total charge, top. A: 0.000 top. B: 0.000
Will do PME sum in reciprocal space for electrostatic interactions.

Using a Gaussian width (1/beta) of 0.260197 nm for Ewald
Potential shift: LJ r^-12: -3.541e+00 r^-6: -1.882e+00, Ewald -1.111e-06
Initialized non-bonded Ewald tables, spacing: 8.41e-04 size: 1071

Generated table with 975 data points for 1-4 COUL.
Tabscale = 500 points/nm
Generated table with 975 data points for 1-4 LJ6.
Tabscale = 500 points/nm
Generated table with 975 data points for 1-4 LJ12.
Tabscale = 500 points/nm

Using SIMD 4x8 nonbonded short-range kernels

Using a dual 4x8 pair-list setup updated with dynamic pruning:
  outer list: updated every 100 steps, buffer 0.050 nm, rlist 0.950 nm
  inner list: updated every  42 steps, buffer 0.001 nm, rlist 0.901 nm
At tolerance 0.005 kJ/mol/ps per atom, equivalent classical 1x1 list would be:
  outer list: updated every 100 steps, buffer 0.213 nm, rlist 1.113 nm
  inner list: updated every  42 steps, buffer 0.127 nm, rlist 1.027 nm

Using Lorentz-Berthelot Lennard-Jones combination rule

Long Range LJ corr.: <C6> 2.8831e-04

There are 46 atoms and 46 charges for free energy perturbation

Initializing LINear Constraint Solver

The number of constraints is 288

Setting the maximum number of constraint warnings to 2147483647
Initial vector of lambda components:[     0.4100     0.4100     0.4100     0.4100     0.4100     0.4100     0.4100 ]

There are: 23384 Atoms
Center of mass motion removal mode is Linear
We have the following groups for center of mass motion removal:
  0:  rest

Started mdrun on rank 0 Wed Jun 16 07:14:23 2021

           Step           Time
      875000000   1750000.00000

   Energies (kJ/mol)
           Bond          Angle    Proper Dih.  Improper Dih.          LJ-14
    5.33690e+02    1.59377e+03    1.98504e+03    7.26177e+01    5.48129e+02
     Coulomb-14        LJ (SR)  Disper. corr.   Coulomb (SR)   Coul. recip.
    2.59978e+03    4.68186e+04   -3.83679e+03   -3.69121e+05    5.05893e+03
    6.24998e+01   -3.13685e+05    6.38076e+04   -2.49877e+05   -2.49877e+05
    Temperature Pres. DC (bar) Pressure (bar)    dVremain/dl   Constr. rmsd
    3.25934e+02   -2.70748e+02    6.46410e+02   -3.53341e+02    7.77261e-07

	<====  A V E R A G E S  ====>

	Statistics over 1340 steps using 1340 frames

   Energies (kJ/mol)
           Bond          Angle    Proper Dih.  Improper Dih.          LJ-14
    5.07697e+02    1.53824e+03    1.95613e+03    8.69676e+01    5.26401e+02
     Coulomb-14        LJ (SR)  Disper. corr.   Coulomb (SR)   Coul. recip.
    2.62503e+03    4.67678e+04   -3.83679e+03   -3.68884e+05    5.16664e+03
 Position Rest.      Potential    Kinetic En.   Total Energy  Conserved En.
    6.08690e+01   -3.13486e+05    6.32136e+04   -2.50272e+05   -2.49905e+05
    Temperature Pres. DC (bar) Pressure (bar)    dVremain/dl   Constr. rmsd
    3.22900e+02   -2.70748e+02    6.89782e+02   -5.30555e+01    0.00000e+00

   Total Virial (kJ/mol)
    1.60296e+04    5.00312e-01   -2.76389e+01
   -3.40552e-01    1.57909e+04    3.65735e+01
   -2.61728e+01    3.69668e+01    1.67065e+04

   Pressure (bar)
    7.11743e+02   -9.93480e+00    8.52539e+00
   -9.81633e+00    7.44090e+02   -8.00943e+00
    8.31882e+00   -8.06484e+00    6.13513e+02
